**************************************
*      Model Generated by MODPEX     *
*Copyright(c) Symmetry Design Systems*
*         All Rights Reserved        *
*    UNPUBLISHED LICENSED SOFTWARE   *
*   Contains Proprietary Information *
*      Which is The Property of      *
*     SYMMETRY OR ITS LICENSORS      *
*    Modeling services provided by   *
* Interface Technologies www.i-t.com *
**************************************
.MODEL Dmbr340rl d(
+IS=6.95527e-06 RS=0.0277955 N=1.23746 EG=0.1
+XTI=5 BV=40 IBV=0.0006 CJO=1.58532e-09
+VJ=0.04 M=0.455759 FC=0.5 TT=0
+KF=0 AF=1)
* Model generated on November 25, 2003
* Model format: PSpice